/*--------------------------------*- C++ -*----------------------------------*\
  =========                 |
  \\      /  F ield         | OpenFOAM: The Open Source CFD Toolbox
   \\    /   O peration     | Website:  https://openfoam.org
    \\  /    A nd           | Version:  6
     \\/     M anipulation  |
\*---------------------------------------------------------------------------*/
FoamFile
{
    version     2.0;
    format      ascii;
    class       polyBoundaryMesh;
    location    "constant/polyMesh";
    object      boundary;
}
// * * * * * * * * * * * * * * * * * * * * * * * * * * * * * * * * * * * * * //

4
(
    inlet
    {
        type            patch;
        nFaces          240;
        startFace       37920;
    }
    outlet
    {
        type            patch;
        nFaces          720;
        startFace       38160;
    }
    upperWall
    {
        type            patch;
        nFaces          4800;
        startFace       38880;
    }
    lowerWall
    {
        type            patch;
        nFaces          4800;
        startFace       43680;
    }
)

// ************************************************************************* //
