/*--------------------------------*- C++ -*----------------------------------*\
| =========                 |                                                 |
| \\      /  F ield         | OpenFOAM: The Open Source CFD Toolbox           |
|  \\    /   O peration     | Version:  2.1.1                                 |
|   \\  /    A nd           | Web:      www.OpenFOAM.org                      |
|    \\/     M anipulation  |                                                 |
\*---------------------------------------------------------------------------*/
FoamFile
{
    version     2.0;
    format      ascii;
    class       dictionary;
    object      blockMeshDict;
}
// * * * * * * * * * * * * * * * * * * * * * * * * * * * * * * * * * * * * * //

convertToMeters 0.1;

vertices
(
    (0 0 0)
    (1 0 0)    
    (0 2 0)
    (1 2 0)    
    (0 0 0.03)
    (1 0 0.03)    
    (0 2 0.03)
    (1 2 0.03)
    (0.44 0 0)
    (0.56 0 0)
    (0.44 0 0.03)
    (0.56 0 0.03)
    (0.44 2 0)
    (0.56 2 0)
    (0.44 2 0.03)
    (0.56 2 0.03)
);

blocks
(
    hex (0 8 12 2 4 10 14 6) (22 100 1) simpleGrading (1 1 1)
    hex (9 1 3 13 11 5 7 15) (22 100 1) simpleGrading (1 1 1)
    hex (8 9 13 12 10 11 15 14) (6 100 1) simpleGrading (1 1 1)
);

edges
(
);


boundary
(
    leftWall
    {
        type patch;
        faces
        (
            (0 2 6 4)
        );
    }
    rightWall
    {
        type patch;
        faces
        (
            (1 3 7 5)
        );
    }
    inletWall
    {
        type patch;
        faces
        (
            (0 8 10 4)
            (9 1 5 11)
                
        );
    }
    inlet
    {
        type wall;
        faces
        (
            (8 9 11 10)            
        );
    }
    outlet
    {
        type patch;
        faces
        (
            (2 12 14 6)
            (12 13 15 14)
            (13 3 7 15)
            
        );
    }
);

mergePatchPairs
(
);

// ************************************************************************* //
