/*--------------------------------*- C++ -*----------------------------------*\
  =========                 |
  \\      /  F ield         | OpenFOAM: The Open Source CFD Toolbox
   \\    /   O peration     | Website:  https://openfoam.org
    \\  /    A nd           | Version:  6
     \\/     M anipulation  |
\*---------------------------------------------------------------------------*/
FoamFile
{
    version     2.0;
    format      ascii;
    class       dictionary;
    location    "system";
    object      fvSolution;
}
// * * * * * * * * * * * * * * * * * * * * * * * * * * * * * * * * * * * * * //

solvers
{
    G
    {
        solver          GAMG;
        smoother        DILUGaussSeidel;  // alternative: GaussSeidel
        tolerance       1e-09;
        relTol          1e-01;

        //alternative Solver
        /*
        solver          PCG;
        preconditioner
        {
            preconditioner  FDIC;
        }
        tolerance       1e-09;
        relTol          1e-01;
        */
    }
}

SIMPLE
{
    nNonOrthogonalCorrectors 0;
    residualControl
    {
        G               1e-6;
    }
}

relaxationFactors
{
    fields
    {
        G 0.2;
    }
}


// ************************************************************************* //
